72
nN.log	Energy: -1117502.3181441
N         -2.40005        0.34574       -0.44128
C         -3.55236       -0.41982       -0.60339
C         -4.54240        0.05495        0.27664
C         -3.95975        1.16189        1.00466
C         -2.64118        1.30893        0.53571
C         -3.77779       -1.51199       -1.43747
C         -5.02650       -2.11093       -1.38613
C         -6.02676       -1.64343       -0.52588
C         -5.78980       -0.56475        0.30984
C         -4.44384        2.02725        1.98335
C         -3.61259        3.02142        2.47201
C         -2.30776        3.16175        1.98535
C         -1.80310        2.31405        1.01199
H         -3.00698       -1.88595       -2.10017
H         -5.22957       -2.96156       -2.02663
H         -6.99235       -2.13485       -0.51311
H         -6.56105       -0.20815        0.98341
H         -5.45796        1.92418        2.35305
H         -3.97378        3.70116        3.23455
H         -1.67595        3.95151        2.37525
H         -0.79503        2.43575        0.63496
C         -0.00084        0.00063       -0.44785
C          1.18841       -0.17094       -1.14838
C          1.19277       -0.17174       -2.53921
C         -0.00220        0.00149       -3.22939
C         -1.19080        0.17262       -1.14709
C         -1.19648        0.17435       -2.53790
H         -0.00026        0.00032        0.63500
H          2.12046       -0.30639       -3.08133
H         -2.12467        0.30928       -3.07902
N          2.39835       -0.34471       -0.44387
C          3.55081        0.42047       -0.60704
C          4.54167       -0.05509        0.27163
C          3.95963       -1.16249        0.99945
C          2.64044       -1.30883        0.53193
C          3.77554        1.51318       -1.44059
C          5.02449        2.11184       -1.39015
C          6.02550        1.64357       -0.53124
C          5.78916        0.56441        0.30404
C          4.44473       -2.02886        1.97670
C          3.61385       -3.02327        2.46553
C          2.30843       -3.16292        1.98031
C          1.80278       -2.31424        1.00828
H          3.00412        1.88787       -2.10216
H          5.22706        2.96287       -2.03020
H          6.99124        2.13468       -0.51907
H          6.56112        0.20718        0.97653
H          5.45927       -1.92629        2.34530
H          3.97588       -3.70370        3.22708
H          1.67686       -3.95287        2.37030
H          0.79423       -2.43542        0.63240
N         -0.00290        0.00188       -4.64021
C         -0.52060        1.00778       -5.45274
C         -0.33459        0.64612       -6.79987
C          0.32597       -0.64174       -6.80051
C          0.51379       -1.00381       -5.45370
C         -1.10735        2.21890       -5.09452
C         -1.52283        3.05701       -6.11716
C         -1.35685        2.70713       -7.46213
C         -0.76050        1.50635       -7.80958
C          0.75057       -1.50170       -7.81102
C          1.34738       -2.70260       -7.46467
C          1.51512       -3.05283       -6.12004
C          1.10103       -2.21497       -5.09662
H         -1.23216        2.50161       -4.05634
H         -1.98489        4.00501       -5.86655
H         -1.69510        3.38600       -8.23589
H         -0.62306        1.23921       -8.85144
H          0.61178       -1.23430       -8.85263
H          1.68463       -3.38123       -8.23905
H          1.97743       -4.00092       -5.87027
H          1.22715       -2.49807       -4.05872
