69
nN.log	Energy: -1045738.6386154
C         -0.06662        0.36660        0.13956
C          1.32689        0.33743        0.13917
C          2.02581        1.54340        0.13865
C          1.35434        2.76481        0.13807
C         -0.03949        2.76711        0.13793
C         -0.76145        1.57489        0.13859
H         -0.62001       -0.56634        0.14005
H          3.11046        1.53073        0.13825
H         -0.57091        3.71274        0.13690
C          1.71751        5.10365        0.95643
C          2.10952        4.04319        0.13778
C          3.23065        4.20322       -0.67603
C          3.95783        5.39318       -0.68641
C          3.54612        6.44033        0.13993
C          2.43327        6.29244        0.95508
H          0.86123        4.98761        1.61146
H          3.54301        3.38424       -1.31543
H          4.08674        7.38037        0.12616
H          2.12047        7.11045        1.59394
C          6.31471        6.14907       -1.11970
C          5.14103        5.54374       -1.56554
C          5.12436        5.08542       -2.88580
N          6.14990        5.18224       -3.72600
C          7.26143        5.76023       -3.27460
C          7.39083        6.26170       -1.98579
H          6.38686        6.50962       -0.09903
H          4.22206        4.62960       -3.28578
H          8.08666        5.82488       -3.97795
H          8.31914        6.72059       -1.66765
C          3.17073       -1.14720        0.95725
C          2.05601       -0.95600        0.13917
C          1.63267       -2.00701       -0.67390
C          2.29834       -3.23242       -0.68371
C          3.41144       -3.39992        0.14203
C          3.84135       -2.36208        0.95617
H          3.49943       -0.34749        1.61160
H          0.76709       -1.86769       -1.31304
H          3.95432       -4.33866        0.12862
H          4.70641       -2.50056        1.59462
C          1.77148       -5.65133       -1.11312
C          1.83514       -4.33298       -1.56103
C          1.44546       -4.09098       -2.88125
N          1.01474       -5.02840       -3.71957
C          0.95868       -6.27927       -3.26627
C          1.32907       -6.64046       -1.97724
H          2.04830       -5.89282       -0.09234
H          1.50243       -3.08232       -3.28282
H          0.60054       -7.02691       -3.96815
H          1.26150       -7.67327       -1.65742
C         -2.96918        0.72379        0.95979
C         -2.24614        1.59019        0.13822
C         -2.94454        2.47891       -0.67862
C         -4.33862        2.51490       -0.68892
C         -5.04038        1.63826        0.14050
C         -4.35660        0.75053        0.95854
H         -2.44098        0.04198        1.61698
H         -2.39085        3.15628       -1.32031
H         -6.12479        1.63746        0.12688
H         -4.90914        0.07333        1.59980
C         -6.17004        4.17853       -1.12715
C         -5.05976        3.46225       -1.57095
C         -4.65428        3.67266       -2.89185
N         -5.24997        4.51067       -3.73442
C         -6.30549        5.18681       -3.28490
C         -6.80462        5.05239       -1.99573
H         -6.51844        4.06406       -0.10613
H         -3.80896        3.11708       -3.29018
H         -6.77321        5.86776       -3.99017
H         -7.66552        5.62881       -1.67927
