52
nN.log	Energy: -793574.7586351
N         -0.63750        2.32086        0.39178
C         -0.00654        3.55505        0.51361
C         -0.60634        4.46508       -0.37730
C         -1.65153        3.74346       -1.07068
C         -1.63794        2.42798       -0.57026
C          1.06700        3.92227        1.32130
C          1.51907        5.22930        1.23233
C          0.92571        6.15048        0.36114
C         -0.13343        5.77374       -0.44794
C         -2.58223        4.10125       -2.04400
C         -3.48083        3.14965       -2.49647
C         -3.46110        1.84879       -1.97954
C         -2.54594        1.46828       -1.01117
H          1.53733        3.21219        1.99055
H          2.35311        5.54211        1.85020
H          1.30419        7.16488        0.31803
H         -0.58702        6.48432       -1.12998
H         -2.60263        5.11129       -2.43803
H         -4.20951        3.41197       -3.25430
H         -4.17791        1.12095       -2.34217
H         -2.54278        0.46193       -0.61062
C          0.00290       -0.01646        0.43608
C          0.31725       -1.16890        1.14843
C          0.32655       -1.15100        2.54085
C          0.00112        0.01858        3.21347
C         -0.31265        1.15354        1.11874
C         -0.32358        1.17078        2.51119
H          0.00379       -0.03013       -0.64721
H          0.59436       -2.04975        3.08301
H          0.00048        0.03225        4.29693
H         -0.59209        2.08288        3.03022
N          0.64225       -2.35448        0.45163
C          0.00833       -3.58393        0.60233
C          0.60874       -4.51712       -0.26387
C          1.65701       -3.81492       -0.97242
C          1.64447       -2.48726       -0.50524
C         -1.06807       -3.92874        1.41610
C         -1.52255       -5.23669        1.35858
C         -0.92871       -6.18052        0.51230
C          0.13339       -5.82622       -0.30303
C          2.58955       -4.19869       -1.93401
C          3.49086       -3.26025       -2.40806
C          3.47189       -1.94670       -1.92422
C          2.55501       -1.54038       -0.96803
H         -1.53856       -3.20121        2.06626
H         -2.35885       -5.53235        1.98182
H         -1.30916       -7.19492        0.49350
H          0.58731       -6.55451       -0.96590
H          2.60922       -5.21839       -2.30236
H          4.22104       -3.54278       -3.15712
H          4.19078       -1.22935       -2.30329
H          2.55272       -0.52419       -0.59314
