129
nN.log	Energy: -1902486.9011518
C         -0.00001       -0.00000        0.00004
C         -0.82695        0.83768       -0.96082
C         -0.51404        0.52272       -2.28598
C          0.51530       -0.52264       -2.28572
C          0.82747       -0.83765       -0.96039
C         -1.77399        1.78934       -0.64666
C         -2.41613        2.46768       -1.68583
C         -2.09966        2.16276       -3.01473
C         -1.16117        1.18728       -3.32010
C          1.16300       -1.18716       -3.31951
C          2.10133       -2.16265       -3.01365
C          2.41704       -2.46762       -1.68458
C          1.77434       -1.78932       -0.64575
H         -2.01321        2.01704        0.38631
H         -2.60373        2.69987       -3.80950
H         -0.93057        0.96557       -4.35629
H          0.93298       -0.96540       -4.35581
H          2.60585       -2.69972       -3.80815
H          2.01299       -2.01706        0.38735
C          0.82701        0.83755        0.96094
C          0.51405        0.52259        2.28608
C         -0.51540       -0.52267        2.28577
C         -0.82758       -0.83760        0.96043
C          1.77414        1.78913        0.64682
C          2.41631        2.46739        1.68601
C          2.09979        2.16248        3.01491
C          1.16121        1.18707        3.32024
C         -1.16317       -1.18717        3.31953
C         -2.10156       -2.16259        3.01362
C         -2.41729       -2.46747        1.68453
C         -1.77452       -1.78918        0.64574
H          2.01338        2.01686       -0.38614
H          2.60387        2.69955        3.80969
H          0.93057        0.96535        4.35641
H         -0.93314       -0.96548        4.35585
H         -2.60611       -2.69968        3.80809
H         -2.01315       -2.01689       -0.38737
N         -3.38237        3.45959       -1.39681
C         -3.15691        4.38426       -0.35335
C         -1.87903        4.90573       -0.13321
C         -1.66066        5.80943        0.89653
C         -2.70815        6.22029        1.71263
C         -3.97992        5.70626        1.49223
C         -4.20554        4.78906        0.47583
H         -1.05947        4.59006       -0.76886
H         -0.66387        6.20711        1.05466
H         -2.53377        6.93098        2.51160
H         -4.80610        6.00991        2.12543
H         -5.19764        4.38370        0.31630
C         -4.58729        3.49719       -2.13721
C         -5.11818        4.71569       -2.56490
C         -6.30283        4.74576       -3.28624
C         -6.96335        3.56600       -3.60906
C         -6.43023        2.35176       -3.19294
C         -5.25655        2.31356       -2.45403
H         -4.59877        5.63560       -2.32307
H         -6.70425        5.69945       -3.61023
H         -7.88417        3.59276       -4.17969
H         -6.93785        1.42429       -3.43312
H         -4.84732        1.36654       -2.12192
N          3.38318       -3.45951       -1.39508
C          4.58851       -3.49693       -2.13483
C          5.25790       -2.31323       -2.45105
C          6.43197       -2.35126       -3.18935
C          6.96534       -3.56541       -3.60542
C          6.30467       -4.74525       -3.28320
C          5.11963       -4.71535       -2.56249
H          4.84846       -1.36629       -2.11898
H          6.93971       -1.42373       -3.42907
H          7.88646       -3.59205       -4.17557
H          6.70628       -5.69886       -3.60717
H          4.60009       -5.63531       -2.32111
C          3.15722       -4.38428       -0.35183
C          4.20549       -4.78924        0.47774
C          3.97940       -5.70655        1.49393
C          2.70751       -6.22055        1.71374
C          1.66039       -5.80954        0.89725
C          1.87923       -4.90573       -0.13229
H          5.19768       -4.38391        0.31868
H          4.80530       -6.01031        2.12743
H          2.53277       -6.93132        2.51256
H          0.66352       -6.20720        1.05492
H          1.05996       -4.58999       -0.76826
N          3.38255        3.45931        1.39701
C          4.58742        3.49701        2.13747
C          5.25673        2.31344        2.45439
C          6.43036        2.35174        3.19337
C          6.96340        3.56603        3.60945
C          6.30283        4.74574        3.28653
C          5.11822        4.71557        2.56513
H          4.84757        1.36638        2.12232
H          6.93802        1.42431        3.43362
H          7.88418        3.59288        4.18014
H          6.70418        5.69947        3.61049
H          4.59878        5.63544        2.32321
C          3.15705        4.38393        0.35352
C          1.87909        4.90514        0.13324
C          1.66063        5.80873       -0.89658
C          2.70811        6.21975       -1.71260
C          3.97996        5.70597       -1.49207
C          4.20567        4.78886       -0.47561
H          1.05954        4.58932        0.76882
H          0.66377        6.20619       -1.05483
H          2.53366        6.93035       -2.51163
H          4.80613        6.00973       -2.12522
H          5.19783        4.38368       -0.31599
N         -3.38336       -3.45939        1.39494
C         -4.58869       -3.49700        2.13469
C         -5.11972       -4.71551        2.56219
C         -6.30476       -4.74559        3.28289
C         -6.96553       -3.56585        3.60525
C         -6.43225       -2.35160        3.18934
C         -5.25818       -2.31339        2.45106
H         -4.60011       -5.63539        2.32069
H         -6.70630       -5.69928        3.60673
H         -7.88664       -3.59263        4.17540
H         -6.94006       -1.42415        3.42918
H         -4.84881       -1.36637        2.11911
C         -3.15730       -4.38398        0.35156
C         -4.20551       -4.78906       -0.47801
C         -3.97925       -5.70614       -1.49438
C         -2.70723       -6.21975       -1.71436
C         -1.66016       -5.80859       -0.89788
C         -1.87918       -4.90504        0.13184
H         -5.19780       -4.38401       -0.31883
H         -4.80510       -6.01002       -2.12787
H         -2.53234       -6.93033       -2.51332
H         -0.66317       -6.20591       -1.05570
H         -1.05995       -4.58914        0.76779
