72
nN.log	Energy: -989374.2649184
N         -0.03221       -0.03843        0.08721
C         -1.44203       -0.13411        0.09301
C         -2.20442        0.53812       -0.86383
C         -3.58674        0.45087       -0.84754
C         -4.25569       -0.32329        0.10348
C         -3.48226       -0.99992        1.04943
C         -2.10044       -0.90123        1.05550
H         -1.70637        1.14261       -1.61276
H         -4.15880        1.00245       -1.58580
H         -3.96976       -1.62298        1.79150
H         -1.52087       -1.43317        1.80082
C          0.58998        1.20481       -0.17722
C          1.71615        1.27163       -0.99874
C          2.31820        2.49726       -1.23840
C          1.80042        3.66232       -0.68685
C          0.66963        3.61251        0.12676
C          0.08251        2.37709        0.38354
H          2.11546        0.36430       -1.43596
H          3.19627        2.54442       -1.87291
H          2.27739        4.61596       -0.88730
H         -0.78880        2.31803        1.02741
C          0.75648       -1.18307        0.34521
C          1.90132       -1.08875        1.13952
C          2.67773       -2.21256        1.38212
C          2.31730       -3.44777        0.85657
C          1.17290       -3.54516        0.07382
C          0.40143       -2.42295       -0.19081
H          2.17947       -0.12910        1.55910
H          3.56478       -2.12250        1.99914
H          2.92180       -4.32497        1.05476
H          0.88273       -4.50096       -0.34801
H         -0.48425       -2.50042       -0.81047
N         -9.95657       -0.72207        0.11458
C         -8.54720       -0.62020        0.11346
C         -7.83574       -0.62343       -1.08764
C         -6.45327       -0.53825       -1.08470
C         -5.73406       -0.42432        0.10738
C         -6.45698       -0.40996        1.30242
C         -7.83820       -0.51718        1.31144
H         -8.37347       -0.70925       -2.02457
H         -5.92077       -0.56911       -2.02916
H         -5.92991       -0.30557        2.24465
H         -8.37813       -0.50693        2.25100
C        -10.59963       -1.61488       -0.77563
C        -11.76299       -1.23099       -1.44442
C        -12.38449       -2.12204       -2.30546
C        -11.85042       -3.38552       -2.52608
C        -10.68331       -3.77888       -1.87363
C        -10.07577       -2.88938       -0.99208
H        -12.17496       -0.24264       -1.27924
H        -13.29102       -1.82215       -2.81935
H        -12.34304       -4.07112       -3.20751
H         -9.17522       -3.18479       -0.46384
C        -10.72357        0.05851        1.00950
C        -11.83141       -0.49209        1.65761
C        -12.58756        0.28056        2.52702
C        -12.24258        1.60293        2.78011
C        -11.13450        2.14948        2.14350
C        -10.38429        1.39057        1.25700
H        -12.09728       -1.52581        1.47040
H        -13.44605       -0.16111        3.02058
H        -12.83097        2.20114        3.46577
H        -10.85687        3.18156        2.32632
H         -9.52749        1.82344        0.75408
C          0.07976        4.86959        0.71153
H          0.83877        5.64547        0.83145
H         -0.70263        5.26842        0.05813
H         -0.37186        4.67983        1.68766
C        -10.07592       -5.13552       -2.12015
H        -10.82726       -5.85085       -2.46084
H         -9.29976       -5.07640       -2.88967
H         -9.61166       -5.53305       -1.21491
