69
nN.log	Energy: -1045739.8555257
C         -0.06848        0.36861        0.12804
C          1.32502        0.33699        0.12688
C          2.02616        1.54168        0.12609
C          1.35682        2.76431        0.12552
C         -0.03701        2.76917        0.12593
C         -0.76107        1.57819        0.12706
H         -0.62345       -0.56342        0.12998
H          3.11081        1.52718        0.12633
H         -0.56692        3.71568        0.12591
C          1.72476        5.10464        0.93956
C          2.11461        4.04109        0.12366
C          3.23504        4.19802       -0.69124
C          3.96617        5.38509       -0.70046
C          3.55925        6.43441        0.12478
C          2.44331        6.29170        0.93676
H          0.86762        4.99237        1.59414
H          3.54493        3.37824       -1.33083
H          4.10490        7.37127        0.11240
H          2.13172        7.11164        1.57356
C          6.31414        6.15809       -1.13560
C          5.15135        5.52941       -1.57968
C          5.15451        5.04234       -2.88634
C          6.29129        5.20258       -3.66629
N          7.40369        5.80186       -3.24512
C          7.39708        6.26624       -1.99683
H          6.38568        6.54021       -0.12386
H          4.27539        4.56336       -3.30161
H          6.30610        4.83349       -4.68806
H          8.31176        6.74804       -1.66253
C          3.16778       -1.15291        0.94015
C          2.05139       -0.95792        0.12503
C          1.62560       -2.00641       -0.68953
C          2.28682       -3.23376       -0.69892
C          3.39944       -3.40692        0.12558
C          3.83543       -2.36939        0.93704
H          3.50027       -0.35462        1.59434
H          0.76052       -1.86424       -1.32872
H          3.93708       -4.34840        0.11303
H          4.70162       -2.51020        1.57327
C          1.77948       -5.65329       -1.13244
C          1.81709       -4.33219       -1.57714
C          1.39194       -4.09156       -2.88321
C          0.95982       -5.15606       -3.66194
N          0.92195       -6.41885       -3.24017
C          1.32928       -6.64519       -1.99246
H          2.07585       -5.90614       -0.12101
H          1.41704       -3.09095       -3.29897
H          0.63124       -4.98443       -4.68324
H          1.28867       -7.67803       -1.65762
C         -2.97196        0.73190        0.94684
C         -2.24568        1.59650        0.12601
C         -2.94149        2.48450       -0.69330
C         -4.33506        2.52503       -0.70206
C         -5.04059        1.65309        0.12839
C         -4.35928        0.76184        0.94479
H         -2.44618        0.04874        1.60457
H         -2.38625        3.15893       -1.33675
H         -6.12477        1.65804        0.11657
H         -4.91373        0.08593        1.58559
C         -6.17824        4.16983       -1.14642
C         -5.05225        3.47479       -1.58639
C         -4.63140        3.71422       -2.89412
C         -5.33810        4.61464       -3.67902
N         -6.41340        5.28066       -3.26180
C         -6.81289        5.04921       -2.01250
H         -6.54542        4.04594       -0.13420
H         -3.77688        3.19017       -3.30628
H         -5.02537        4.80673       -4.70166
H         -7.68759        5.60227       -1.68150
