68
nN.log	Energy: -1068922.8644822
N          2.11982        0.34554       -0.00059
C          0.90572        0.89437        0.04326
N         -0.23079        0.20035        0.02650
C         -0.10191       -1.12461       -0.03862
N          1.06812       -1.76203       -0.08607
C          2.15094       -0.98538       -0.06479
C          3.47805       -1.64552       -0.11614
C          3.56929       -3.03617       -0.18707
H          2.65782       -3.61970       -0.20377
C          4.81105       -3.65200       -0.23523
H          4.87513       -4.73266       -0.29036
C          5.97087       -2.88548       -0.21291
H          6.94114       -3.36803       -0.25064
C          5.88527       -1.49953       -0.14227
H          6.78797       -0.89972       -0.12478
C          4.64499       -0.88068       -0.09408
H          4.56266        0.19714       -0.03904
C          0.81140        2.37224        0.11531
C         -0.43725        2.99411        0.16123
H         -1.32934        2.38134        0.14337
C         -0.52462        4.37659        0.22857
H         -1.49742        4.85333        0.26397
C          0.63161        5.14851        0.25065
H          0.56169        6.22931        0.30333
C          1.87779        4.53343        0.20511
H          2.78057        5.13314        0.22219
C          1.96897        3.15115        0.13769
H          2.93204        2.65840        0.10167
C         -1.34090       -1.93483       -0.05953
C         -2.58481       -1.29938       -0.01584
H         -2.63451       -0.21863        0.03330
C         -3.72682       -2.07113       -0.03691
C         -3.65641       -3.46604       -0.10042
C         -2.42146       -4.10289       -0.14377
H         -2.35348       -5.18391       -0.19309
C         -1.26954       -3.33063       -0.12309
H         -0.29313       -3.79647       -0.15585
C         -5.17354       -1.60483        0.00059
C         -5.02370       -4.00106       -0.10846
C         -5.91932       -2.92893       -0.05005
C         -7.28590       -3.14409       -0.04389
H         -7.97464       -2.30740        0.00156
C         -7.75424       -4.45349       -0.09719
H         -8.82155       -4.64318       -0.09337
C         -6.86476       -5.52517       -0.15550
H         -7.24912       -6.53799       -0.19644
C         -5.49181       -5.30844       -0.16164
H         -4.80271       -6.14466       -0.20705
C         -5.99203        0.56411       -0.62916
C         -5.53085       -0.65517       -1.13310
C         -5.43958       -0.87417       -2.49580
H         -5.07925       -1.82305       -2.87860
C         -5.81766        0.14784       -3.36176
H         -5.75275       -0.00336       -4.43318
C         -6.27790        1.36520       -2.86401
H         -6.56723        2.15012       -3.55359
C         -6.36911        1.58387       -1.49383
H         -6.72776        2.53323       -1.11118
C         -5.50433       -0.76019        1.22198
C         -5.97549        0.49865        0.83911
C         -6.33217        1.43700        1.79934
H         -6.69831        2.41629        1.51074
C         -6.21071        1.09729        3.14222
H         -6.48383        1.81738        3.90525
C         -5.74076       -0.15915        3.51912
H         -5.65222       -0.40518        4.57109
C         -5.38302       -1.09957        2.55739
H         -5.01526       -2.07842        2.84613
