94
nN.log	Energy: -1442172.3919685
N         -0.00277       -0.00517        0.00377
C         -1.41221       -0.10754        0.00737
C         -2.18713        0.75378       -0.77206
C         -3.56939        0.66780       -0.75027
C         -4.20095       -0.30795        0.01583
C         -3.43169       -1.18335        0.77728
C         -2.05119       -1.07087        0.79068
H         -1.70093        1.50594       -1.38176
H         -4.16891        1.35285       -1.33826
H         -3.92363       -1.94663        1.36877
H         -1.45879       -1.74531        1.39735
C          0.61332        1.26697        0.00393
C          1.73465        1.51112       -0.79142
C          2.35045        2.75176       -0.77428
C          1.83169        3.78305        0.00368
C          0.70112        3.55053        0.78199
C          0.10969        2.29812        0.79936
H          2.13405        0.71659       -1.41034
H          3.23420        2.93178       -1.37511
H          0.29437        4.35556        1.38274
H         -0.76138        2.11878        1.41820
C          0.79180       -1.17397       -0.00200
C          1.94447       -1.25043        0.78234
C          2.73544       -2.38724        0.75868
C          2.36622       -3.48429       -0.01466
C          1.20587       -3.42105       -0.78114
C          0.43690       -2.26900       -0.79234
H          2.22925       -0.40520        1.39746
H          3.64196       -2.43482        1.35064
H          0.91583       -4.27764       -1.37830
H         -0.45699       -2.22031       -1.40265
N         -5.61176       -0.40847        0.02131
C         -6.42788       -0.31450        1.14285
C         -7.77106       -0.46207        0.74691
C         -7.76338       -0.65366       -0.68738
C         -6.41582       -0.61441       -1.09391
C         -8.78252       -0.39360        1.70287
C         -8.44189       -0.17702        3.02779
C         -7.10186       -0.02196        3.40270
C         -6.07777       -0.08580        2.47137
C         -8.76314       -0.86109       -1.63557
C         -8.40625       -1.02839       -2.96336
C         -7.06061       -0.99690       -3.34882
C         -6.04789       -0.79245       -2.42537
H         -9.82097       -0.50548        1.41127
H         -9.21719       -0.12230        3.78280
H         -6.85797        0.15478        4.44415
H         -5.04332        0.04339        2.76578
H         -9.80480       -0.89353       -1.33585
H         -9.17248       -1.18928       -3.71245
H         -6.80283       -1.13804       -4.39235
H         -5.00785       -0.77748       -2.72793
N          2.44779        5.05618        0.00300
C          2.95310        5.71456        1.11833
C          3.48565        6.95472        0.71711
C          3.29165        7.04759       -0.71387
C          2.64967        5.85981       -1.11335
C          4.06319        7.79583        1.66607
C          4.10368        7.38881        2.98933
C          3.57875        6.14771        3.36939
C          2.99939        5.29325        2.44505
C          3.59202        8.02146       -1.66410
C          3.24692        7.79911       -2.98691
C          2.59947        6.61676       -3.36522
C          2.28976        5.63314       -2.43961
H          4.47698        8.75357        1.37036
H          4.54850        8.03244        3.73900
H          3.62800        5.84535        4.40933
H          2.60242        4.33043        2.74316
H          4.08626        8.94070       -1.36975
H          3.47486        8.54657       -3.73756
H          2.33116        6.46655       -4.40483
H          1.78113        4.72391       -2.73638
N          3.16342       -4.65257       -0.02261
C          3.74768       -5.22886       -1.14491
C          4.46340       -6.37600       -0.75187
C          4.30263       -6.49617        0.68111
C          3.49603       -5.41695        1.09010
C          5.14813       -7.12243       -1.70870
C          5.11194       -6.71454       -3.03180
C          4.40402       -5.56534       -3.40384
C          3.71518       -4.80599       -2.47157
C          4.75615       -7.41430        1.62605
C          4.39808       -7.24552        2.95330
C          3.58657       -6.17257        3.34128
C          3.12270       -5.24618        2.42102
H          5.70313       -8.00790       -1.41919
H          5.63850       -7.28519       -3.78759
H          4.39541       -5.25940       -4.44388
H          3.17619       -3.91302       -2.76399
H          5.37793       -8.24988        1.32420
H          4.74393       -7.95057        3.69991
H          3.31155       -6.06369        4.38427
H          2.48806       -4.42292        2.72582
