118
nN.log	Energy: -1733595.4907644
N         -0.07083        0.80807        0.35450
C          0.98653        0.22171        1.08522
C          2.18749        0.90660        1.27814
C          3.23186        0.32192        1.97581
C          3.08718       -0.94518        2.54049
C          1.88057       -1.62303        2.36335
C          0.85280       -1.05782        1.62893
H          2.30951        1.89737        0.85637
H          4.16328        0.86110        2.10283
H          1.76188       -2.61256        2.79013
H         -0.07336       -1.60242        1.48753
C          0.20497        1.56110       -0.80965
C         -0.46329        2.76077       -1.05637
C         -0.19409        3.49925       -2.19764
C          0.75009        3.05583       -3.12290
C          1.42050        1.85787       -2.87552
C          1.15180        1.11962       -1.73594
H         -1.19440        3.11974       -0.34143
H         -0.71508        4.43365       -2.37051
H          2.15318        1.50383       -3.59192
H          1.67423        0.18664       -1.55972
C         -1.40512        0.66454        0.79941
C         -2.43402        0.41553       -0.11088
C         -3.74110        0.27782        0.32285
C         -4.05684        0.38276        1.67761
C         -3.03056        0.63341        2.58781
C         -1.72165        0.77146        2.15393
H         -2.20122        0.32444       -1.16537
H         -4.53230        0.07893       -0.39116
H         -3.26155        0.72930        3.64223
H         -0.93415        0.97374        2.87050
N          4.13845       -1.56403        3.26036
C          4.98104       -0.81891        4.10789
C          4.46575        0.23781        4.86766
C          5.29083        0.95351        5.72066
C          6.63562        0.62364        5.85144
C          7.14536       -0.43225        5.10805
C          6.33313       -1.14544        4.23699
H          3.41561        0.49164        4.78541
H          4.87292        1.76961        6.29974
H          7.27491        1.18094        6.52569
H          8.19128       -0.70420        5.19674
H          6.74411       -1.96314        3.65741
C          4.49694       -2.89228        2.90090
C          4.52814       -3.91280        3.89992
C          4.90770       -5.22730        3.51668
C          5.21034       -5.49976        2.15875
C          5.13916       -4.50893        1.21999
C          4.79033       -3.19603        1.59552
C          4.17669       -3.66777        5.25164
C          4.22289       -4.67354        6.17758
C          4.62252       -5.97523        5.80357
C          4.95220       -6.24408        4.50444
H          5.49065       -6.50913        1.87699
H          5.36513       -4.72153        0.18143
H          4.74905       -2.40887        0.85129
H          3.86950       -2.67182        5.54414
H          3.94960       -4.47179        7.20697
H          4.66008       -6.76111        6.54938
H          5.24940       -7.24449        4.20735
N          1.06063        3.80292       -4.28632
C          0.05898        4.48880       -5.00086
C         -1.21561        3.92850       -5.14588
C         -2.19300        4.59201       -5.87035
C         -1.92034        5.81179       -6.48062
C         -0.65286        6.36246       -6.34865
C          0.32938        5.71616       -5.61051
H         -1.43283        2.97062       -4.68842
H         -3.17480        4.14234       -5.96959
H         -2.68537        6.32285       -7.05283
H         -0.42163        7.31247       -6.81746
H          1.31258        6.15943       -5.50915
C          2.42998        4.08565       -4.54492
C          2.99571        3.74953       -5.81281
C          4.36177        4.05925       -6.05068
C          5.13257        4.65785       -5.02235
C          4.57088        4.93764       -3.80818
C          3.20958        4.65913       -3.57233
C          2.25203        3.10268       -6.83219
C          2.83201        2.80064       -8.03368
C          4.18306        3.12868       -8.28067
C          4.92845        3.73889       -7.31073
H          6.17671        4.88172       -5.21324
H          5.16409        5.38986       -3.02173
H          2.76315        4.89575       -2.61319
H          1.21592        2.84874       -6.64794
H          2.25175        2.30419       -8.80301
H          4.62785        2.88845       -9.23968
H          5.97033        3.98390       -7.48933
N         -5.40601        0.25959        2.09225
C         -5.74350       -0.38738        3.29714
C         -5.03287       -1.51824        3.71626
C         -5.38268       -2.16928        4.88854
C         -6.45408       -1.72452        5.65591
C         -7.16800       -0.61085        5.23473
C         -6.81618        0.06056        4.07166
H         -4.20733       -1.88241        3.11636
H         -4.81882       -3.04262        5.19728
H         -6.72889       -2.24169        6.56742
H         -8.00640       -0.24968        5.81987
H         -7.37667        0.93231        3.75636
C         -6.38115        1.04300        1.41598
C         -7.52863        0.41029        0.84719
C         -8.49553        1.21928        0.19189
C         -8.28413        2.61740        0.08970
C         -7.15985        3.18914        0.61613
C         -6.20858        2.39848        1.29162
C         -7.72805       -0.99277        0.89491
C         -8.84272       -1.55811        0.33900
C         -9.81631       -0.75348       -0.29238
C         -9.64306        0.60049       -0.36644
H         -9.02547        3.22327       -0.42033
H         -6.99796        4.25754        0.53131
H         -5.32494        2.85679        1.72098
H         -6.98506       -1.61468        1.37768
H         -8.98075       -2.63243        0.38141
H        -10.69751       -1.21473       -0.72359
H        -10.38149        1.22408       -0.85968
