62
nN.log	Energy: -938547.6861746
N          4.18299       -0.08686        0.35509
C          4.42579        1.15903       -0.21391
C          5.78462        1.24171       -0.57299
C          6.39119       -0.01849       -0.20212
C          5.37241       -0.80758        0.36508
C          3.55135        2.22528       -0.41092
C          4.06226        3.37474       -0.99203
C          5.40823        3.46949       -1.36567
C          6.27398        2.40918       -1.15544
C          7.68092       -0.53392       -0.31411
C          7.93203       -1.82023        0.13356
C          6.90461       -2.59591        0.68390
C          5.61400       -2.10647        0.80634
H          2.51109        2.16199       -0.11583
H          3.40336        4.21952       -1.15773
H          5.77346        4.38350       -1.81882
H          7.31856        2.48535       -1.43647
H          8.47426        0.06402       -0.74887
H          8.93009       -2.23466        0.05434
H          7.12058       -3.60375        1.01997
H          4.82166       -2.71544        1.22415
C          2.81019       -0.97176        2.15721
C          2.93488       -0.54608        0.83793
C          1.83195       -0.56094       -0.00879
C          0.58777       -0.98842        0.45322
C          0.47443       -1.42433        1.77490
C          1.57924       -1.42014        2.61487
H          3.67290       -0.94154        2.81193
H          1.94836       -0.21876       -1.03093
H         -0.47969       -1.78729        2.13978
H          1.47918       -1.76256        3.63823
C         -0.58772       -0.98843       -0.45322
C         -0.47440       -1.42442       -1.77488
C         -1.57921       -1.42025       -2.61485
C         -2.81014       -0.97182       -2.15722
C         -2.93482       -0.54606       -0.83795
C         -1.83189       -0.56090        0.00876
H          0.47972       -1.78742       -2.13974
H         -1.47915       -1.76273       -3.63819
H         -3.67285       -0.94161       -2.81193
H         -1.94830       -0.21866        1.03088
N         -4.18293       -0.08679       -0.35514
C         -4.42570        1.15915        0.21378
C         -5.78453        1.24188        0.57285
C         -6.39113       -0.01833        0.20206
C         -5.37236       -0.80748       -0.36509
C         -3.55124        2.22538        0.41073
C         -4.06212        3.37489        0.99177
C         -5.40809        3.46969        1.36540
C         -6.27387        2.40940        1.15523
C         -7.68087       -0.53373        0.31407
C         -7.93201       -1.82006       -0.13353
C         -6.90461       -2.59579       -0.68382
C         -5.61398       -2.10639       -0.80628
H         -2.51098        2.16205        0.11565
H         -3.40320        4.21966        1.15743
H         -5.77330        4.38373        1.81849
H         -7.31844        2.48560        1.43626
H         -8.47420        0.06425        0.74879
H         -8.93008       -2.23446       -0.05429
H         -7.12060       -3.60364       -1.01983
H         -4.82165       -2.71540       -1.22405
