78
nN.log	Energy: -1132830.1252394
N          2.55381        0.48188       -0.04072
C          3.28778        1.21168        0.92360
C          2.87099        1.28486        2.25404
C          3.61458        2.00549        3.17861
C          4.78951        2.64277        2.79961
C          5.21283        2.55809        1.47792
C          4.46669        1.85673        0.54311
H          1.96306        0.77832        2.55905
H          3.27728        2.05501        4.20795
H          5.37015        3.19860        3.52631
H          6.12632        3.05249        1.16697
H          4.79181        1.79874       -0.48940
C          3.26663       -0.39796       -0.90172
C          3.12881       -0.27037       -2.31750
C          3.83365       -1.17833       -3.15273
C          4.67488       -2.15780       -2.56729
C          4.81081       -2.23392       -1.20942
C          4.09392       -1.35565       -0.37207
C          2.33234        0.73684       -2.91907
C          2.22544        0.82117       -4.28010
C          2.90674       -0.09461       -5.11145
C          3.69379       -1.06656       -4.55963
H          5.21432       -2.83990       -3.21581
H          5.45915       -2.98019       -0.76495
H          4.19152       -1.42788        0.70516
H          1.80769        1.44182       -2.28702
H          1.61403        1.59734       -4.72589
H          2.80797       -0.01923       -6.18838
H          4.22901       -1.76705       -5.19230
C          1.14613        0.41592        0.00054
C          0.39026        1.53761        0.35640
C         -0.99218        1.47773        0.36736
C         -1.67598        0.31418        0.00312
C         -0.91182       -0.79337       -0.36501
C          0.47403       -0.75285       -0.35939
H          0.89353        2.45625        0.63363
H         -1.55416        2.35359        0.67344
H         -1.40884       -1.70564       -0.67689
H          1.04067       -1.62825       -0.65301
C         -3.15596        0.26201        0.00603
C         -3.92017        1.33965       -0.44234
C         -5.30556        1.29587       -0.44313
C         -5.97797        0.16499        0.02222
C         -5.22261       -0.91792        0.48366
C         -3.83986       -0.86760        0.46459
H         -3.42316        2.22359       -0.82738
H         -5.87271        2.14390       -0.80762
H         -5.72652       -1.79589        0.87017
H         -3.27770       -1.71149        0.85016
N         -7.38596        0.13542        0.07533
C         -8.11376       -1.04646       -0.19521
C         -9.30353       -1.29217        0.49408
C        -10.04304       -2.43426        0.22719
C         -9.60281       -3.35656       -0.71546
C         -8.41722       -3.11577       -1.39863
C         -7.67980       -1.96577       -1.15226
H         -9.64251       -0.57828        1.23608
H        -10.96507       -2.60974        0.77004
H        -10.17853       -4.25234       -0.91618
H         -8.06650       -3.82132       -2.14360
H         -6.76359       -1.77661       -1.69882
C         -8.10290        1.36035        0.17264
C         -7.98154        2.16155        1.34862
C         -8.68925        3.39227        1.40752
C         -9.51703        3.77520        0.32225
C         -9.63767        2.97088       -0.77622
C         -8.91788        1.76166       -0.85534
C         -7.19919        1.76721        2.46363
C         -7.10853        2.56679        3.56969
C         -7.79253        3.80113        3.62086
C         -8.56608        4.20002        2.56676
H        -10.05868        4.71319        0.38247
H        -10.27575        3.26371       -1.60199
H         -9.00281        1.13263       -1.73413
H         -6.67229        0.82226        2.43089
H         -6.50816        2.25130        4.41528
H         -7.70686        4.42705        4.50182
H         -9.10348        5.14199        2.60323
