69
nN.log	Energy: -1045760.5257692
N          1.16928        2.25302        0.01025
C          1.77979        1.06875        0.04247
N          1.14467       -0.10245        0.03716
C         -0.18602       -0.03958       -0.00156
N         -0.88213        1.09589       -0.03759
C         -0.16194        2.21727       -0.03065
C          3.26179        1.05359        0.08959
C          3.97045        2.25308        0.07283
C          5.36287        2.26505        0.11349
C          6.03907        1.04392        0.17056
C          5.33859       -0.15492        0.18549
C          3.95274       -0.15662        0.14548
H          3.41726        3.18169        0.00875
H          7.12233        1.03608        0.22541
H          5.87828       -1.09340        0.23844
H          3.39416       -1.08339        0.15962
C          6.10705        3.54934        0.09899
C          5.66836        4.63520        0.86010
C          6.36279        5.83708        0.84721
C          7.50862        5.97424        0.07303
C          7.95450        4.90096       -0.68850
C          7.25943        3.69923       -0.67551
H          4.78687        4.52827        1.48303
H          6.01192        6.66692        1.45030
H          8.05108        6.91267        0.06305
H          8.84278        5.00158       -1.30194
H          7.60044        2.87340       -1.29062
C         -0.94084       -1.31586       -0.00742
C         -0.25642       -2.52908        0.02292
C         -0.94312       -3.74116        0.02248
C         -2.33962       -3.71669       -0.00721
C         -3.02752       -2.51081       -0.03448
C         -2.33521       -1.30960       -0.03531
H          0.82542       -2.51360        0.06605
H         -2.88920       -4.65157       -0.02958
H         -4.11103       -2.50941       -0.06325
H         -2.85838       -0.36254       -0.05712
C         -0.20314       -5.02761        0.05225
C          0.94205       -5.20913       -0.72648
C          1.63561       -6.41131       -0.69839
C          1.19588       -7.45341        0.10893
C          0.05797       -7.28437        0.88821
C         -0.63511       -6.08176        0.86001
H          1.27872       -4.40717       -1.37455
H          2.51831       -6.53697       -1.31526
H          1.73742       -8.39218        0.13092
H         -0.28747       -8.08908        1.52741
H         -1.50890       -5.94912        1.48892
C         -0.88911        3.50886       -0.07237
C         -2.28206        3.52239       -0.09723
C         -2.98789        4.72289       -0.13324
C         -2.26802        5.92013       -0.14268
C         -0.87972        5.91330       -0.11603
C         -0.18604        4.71337       -0.08115
H         -2.81079        2.57787       -0.06914
H         -2.80180        6.86304       -0.19291
H         -0.33605        6.85085       -0.13209
H          0.89581        4.69312       -0.06266
C         -4.47196        4.72464       -0.16330
C         -5.16890        3.81987       -0.96733
C         -6.55676        3.81963       -0.99606
C         -7.27223        4.72448       -0.22116
C         -6.58974        5.62913        0.58289
C         -5.20170        5.62883        0.61141
H         -4.61626        3.12505       -1.59048
H         -7.08097        3.11519       -1.63203
H         -8.35598        4.72442       -0.24360
H         -7.13993        6.33307        1.19708
H         -4.67634        6.32242        1.25916
