108
nN.log	Energy: -1648816.1702526
N          2.12095        0.27547       -0.03456
C          0.90947        0.82781       -0.06587
N         -0.22623        0.13674       -0.07491
C         -0.10257       -1.19025       -0.06858
N          1.06518       -1.83425       -0.04904
C          2.14833       -1.05705       -0.02518
C          3.47889       -1.71054        0.01508
C          3.58645       -3.09637       -0.05779
H          2.68482       -3.68693       -0.16092
C          4.83668       -3.70998       -0.02565
C          5.97524       -2.91099        0.08432
H          6.95196       -3.38285        0.10988
C          5.88629       -1.52098        0.16385
C          4.62639       -0.93019        0.12658
H          4.51933        0.14397        0.20554
C          4.95465       -5.18728       -0.11400
C          4.08165       -6.01398        0.59670
H          3.32500       -5.56822        1.23335
C          4.18999       -7.39558        0.51612
H          3.50858       -8.02186        1.08089
C          5.17334       -7.97464       -0.27689
H          5.25807       -9.05348       -0.33988
C          6.04695       -7.16207       -0.98909
H          6.81165       -7.60515       -1.61708
C          5.93825       -5.78034       -0.90839
H          6.60880       -5.15285       -1.48563
C          7.10419       -0.68239        0.29736
C          7.21576        0.52438       -0.39767
H          6.41567        0.83549       -1.06055
C          8.34802        1.31661       -0.26699
H          8.41798        2.24734       -0.81866
C          9.39034        0.91487        0.55981
H         10.27508        1.53288        0.66177
C          9.29110       -0.28384        1.25548
H         10.09567       -0.60096        1.90938
C          8.15747       -1.07489        1.12611
H          8.07723       -1.99608        1.69313
C          0.81381        2.30619       -0.10601
C         -0.43602        2.91938       -0.12439
H         -1.32291        2.30002       -0.08136
C         -0.54250        4.30636       -0.17844
C          0.62677        5.06770       -0.20983
H          0.55339        6.14942       -0.25262
C          1.88784        4.47043       -0.19226
C          1.96903        3.08106       -0.14071
H          2.93102        2.58456       -0.15223
C          3.12355        5.29191       -0.24419
C          4.23216        4.95854        0.53783
H          4.17705        4.10756        1.20800
C          5.39321        5.71743        0.48342
H          6.24112        5.44566        1.10206
C          5.46571        6.82500       -0.35285
H          6.37195        7.41832       -0.39522
C          4.36920        7.16678       -1.13486
H          4.41964        8.02405       -1.79671
C          3.20888        6.40619       -1.08168
H          2.36720        6.66472       -1.71513
C         -1.87678        4.95788       -0.20369
C         -2.91196        4.42890       -0.97848
H         -2.73871        3.53907       -1.57388
C         -4.15520        5.04548       -1.01364
H         -4.93890        4.62766       -1.63496
C         -4.38939        6.19537       -0.26944
H         -5.36023        6.67700       -0.29891
C         -3.36951        6.72504        0.51184
H         -3.54490        7.61608        1.10411
C         -2.12411        6.11231        0.54268
H         -1.33933        6.52086        1.17022
C         -1.35326       -1.97942       -0.09138
C         -2.57558       -1.31363        0.02631
H         -2.59314       -0.23748        0.14448
C         -3.73908       -2.04804       -0.01494
C         -3.71618       -3.43477       -0.18313
C         -2.50155       -4.10361       -0.29379
H         -2.46782       -5.17967       -0.42272
C         -1.32440       -3.36972       -0.24238
H         -0.36396       -3.86214       -0.32793
C         -5.16605       -1.53562        0.09823
C         -5.10331       -3.91728       -0.21624
C         -5.95948       -2.82041       -0.06543
C         -7.33283       -2.98688       -0.06657
H         -7.99074       -2.13272        0.05164
C         -7.84895       -4.27018       -0.22197
H         -8.92246       -4.42080       -0.22665
C         -6.99955       -5.36505       -0.37128
H         -7.42080       -6.35679       -0.49057
C         -5.61948       -5.19818       -0.36961
H         -4.96161       -6.05234       -0.48708
C         -5.79226        0.75352       -0.26581
C         -5.47603       -0.44368       -0.91436
C         -5.43671       -0.51577       -2.29532
H         -5.18675       -1.44720       -2.79195
C         -5.71950        0.63156       -3.03140
H         -5.69480        0.59557       -4.11448
C         -6.03246        1.82755       -2.38809
H         -6.25077        2.71044       -2.97913
C         -6.07179        1.89885       -0.99978
H         -6.31097        2.83138       -0.50079
C         -5.41371       -0.81087        1.41425
C         -5.75464        0.52458        1.18490
C         -5.98979        1.38410        2.25035
H         -6.24456        2.42434        2.07973
C         -5.88678        0.88518        3.54398
H         -6.06606        1.54110        4.38827
C         -5.55368       -0.44925        3.76822
H         -5.47898       -0.81961        4.78425
C         -5.31151       -1.30884        2.70062
H         -5.04568       -2.34671        2.87090
