74
nN.log	Energy: -1131334.1401866
C         27.53684       25.19110       24.18783
C         28.06284       26.49328       24.06123
C         27.27207       27.58547       24.33004
C         25.94051       27.36287       24.76895
C         25.51150       26.02348       24.87649
N         26.29791       24.97743       24.58363
C         25.04510       28.42173       25.13168
C         23.78990       28.16151       25.56343
C         23.30859       26.81652       25.68116
C         24.15341       25.74341       25.32843
C         21.99374       26.49503       26.10884
C         21.61917       25.17232       26.13226
C         22.54255       24.16949       25.77172
N         23.76833       24.46000       25.38400
H         29.08866       26.64652       23.75027
H         25.38962       29.44580       25.06171
H         23.12821       28.97889       25.82115
H         20.61123       24.91286       26.43103
C         28.35267       23.98349       23.89250
C         30.23802       22.86882       22.83284
C         29.82725       21.62975       23.38878
C         28.65785       21.60079       24.19212
C         27.94032       22.73535       24.43263
C         29.47647       24.03177       23.10479
C         31.39847       22.90570       22.01877
C         32.11751       21.76781       21.77452
C         31.71015       20.53499       22.33168
C         30.59247       20.46872       23.11868
H         28.33803       20.65436       24.61599
H         27.04002       22.71547       25.03379
H         29.79685       24.96337       22.65013
H         31.70873       23.85421       21.59216
H         33.00383       21.80729       21.15156
H         32.28804       19.63996       22.13097
H         30.27607       19.52303       23.54659
C         27.83091       28.95301       24.16277
C         27.27103       29.84532       23.24663
C         27.81855       31.10866       23.07018
C         28.92994       31.49754       23.80921
C         29.49373       30.61520       24.72203
C         28.94918       29.34901       24.89598
H         26.40914       29.53938       22.66349
H         27.37862       31.78963       22.35053
H         29.35570       32.48495       23.67246
H         30.35925       30.91278       25.30295
H         29.38465       28.66204       25.61350
C         21.01809       27.53973       26.51776
C         19.81090       27.67828       25.83330
C         18.88249       28.63339       26.22799
C         19.14805       29.45678       27.31476
C         20.34645       29.32124       28.00619
C         21.27670       28.37020       27.60969
H         19.60727       27.03966       24.98060
H         17.95075       28.73502       25.68332
H         18.42315       30.20112       27.62367
H         20.55637       29.95530       28.86003
H         22.20791       28.25925       28.15470
C         22.18266       22.72702       25.79635
C         20.81295       20.86562       26.55692
C         21.58583       19.96820       25.77567
C         22.66688       20.48699       25.01676
C         22.96117       21.81862       25.02932
C         21.13794       22.24426       26.54542
C         19.73848       20.35497       27.32856
C         19.44387       19.01909       27.31899
C         20.21123       18.12656       26.53748
C         21.25618       18.59059       25.78530
H         23.26309       19.80337       24.42105
H         23.79343       22.21705       24.46271
H         20.54737       22.90776       27.16848
H         19.15097       21.04314       27.92788
H         18.61954       18.63931       27.91180
H         19.96820       17.07003       26.53782
H         21.84846       17.90732       25.18538
