62
nN.log	Energy: -938547.3272957
N          3.30282       -0.16431        0.70525
C          3.92127        1.02864        0.34846
C          5.21949        0.75305       -0.11780
C          5.39548       -0.68083       -0.03434
C          4.19281       -1.20747        0.47504
C          3.44517        2.33425        0.42899
C          4.28664        3.35326        0.01788
C          5.58676        3.10819       -0.46145
C          6.04707        1.79653       -0.52107
C          6.44405       -1.54047       -0.35509
C          6.27718       -2.90271       -0.16909
C          5.07037       -3.41100        0.32661
C          4.01287       -2.57723        0.65317
H          2.44902        2.54941        0.79587
H          3.92601        4.37561        0.04768
H          7.05776        1.59146       -0.85784
H          7.37532       -1.14652       -0.74694
H          7.08389       -3.58409       -0.41229
H          4.95738       -4.48144        0.45616
H          3.07858       -2.97758        1.02740
C          1.77965       -0.91024        2.44756
C          1.98944       -0.29393        1.21666
C          0.90819        0.19559        0.48849
C         -0.37769        0.07661        0.99817
C         -0.59135       -0.54780        2.22135
C          0.48895       -1.04479        2.94087
H          2.63112       -1.27384        3.01085
H          1.08384        0.66028       -0.47471
H         -1.21668        0.46166        0.43015
H         -1.59702       -0.64678        2.61286
H          0.32903       -1.52799        3.89783
C         10.08469        7.89613       -5.39437
C         11.41660        8.21694       -5.16028
C         11.88937        8.29302       -3.85548
C         11.03951        8.03964       -2.78738
C          9.70297        7.72931       -3.02480
C          9.22382        7.66258       -4.33055
H          9.70904        7.84014       -6.40954
H         12.08434        8.40703       -5.99239
H         12.92835        8.53749       -3.66684
H         11.40312        8.07395       -1.76702
H          8.17827        7.43384       -4.50103
N          8.83072        7.48070       -1.93831
C          8.08701        6.32243       -1.74250
C          7.34229        6.44823       -0.55579
C          7.65573        7.74887       -0.00422
C          8.57347        8.35203       -0.88577
C          8.03683        5.15993       -2.50656
C          7.21518        4.13614       -2.06827
C          6.45195        4.23579       -0.89023
C          6.52701        5.40193       -0.13506
C          7.23301        8.43897        1.12998
C          7.72448        9.71251        1.36393
C          8.62699       10.30259        0.47075
C          9.06265        9.63725       -0.66399
H          8.61604        5.05779       -3.41612
H          7.14138        3.23187       -2.66238
H          5.97022        5.48394        0.79242
H          6.52748        7.98449        1.81677
H          7.40664       10.26139        2.24251
H          8.99259       11.30401        0.66798
H          9.75384       10.10251       -1.35615
