81
nN.log	Energy: -1293425.2907872
C          0.05562        1.39405       -1.38439
C          1.23701        0.65716       -1.38779
C          1.19411       -0.73178       -1.38439
C         -0.03466       -1.38639       -1.39797
C         -1.21617       -0.65485       -1.39423
C         -1.16872        0.73679       -1.39768
H          2.20068        1.15144       -1.37866
H         -0.08870       -2.46810       -1.39733
H         -2.07861        1.32431       -1.39625
C          0.65841        4.87510       -0.58827
C         -0.28593        4.94160       -1.62449
N         -0.62675        3.66957       -2.04737
C          0.07966        2.86407       -1.30792
N          0.88962        3.52281       -0.39734
C         -0.74036        6.18363       -2.06933
C         -0.24211        7.31657       -1.45096
C          0.69114        7.22873       -0.40475
C          1.15854        6.00648        0.04820
H         -1.46379        6.24154       -2.87332
H         -0.57759        8.29459       -1.77602
H          1.05422        8.13913        0.05811
H          1.87548        5.93464        0.85748
C          1.58862        2.94517        0.69822
C          0.88803        2.20221        1.64301
C          1.57421        1.62194        2.69989
C          2.94978        1.78832        2.82038
C          3.64024        2.54263        1.87933
C          2.96207        3.12130        0.81373
H         -0.18342        2.07574        1.53873
H          1.03042        1.04195        3.43749
H          3.48242        1.33116        3.64601
H          4.71243        2.67195        1.96663
H          3.49014        3.69411        0.06024
C          3.90477       -2.99811       -0.58978
C          4.43938       -2.20571       -1.61749
N          3.50967       -1.27234       -2.03879
C          2.45509       -1.48760       -1.30653
N          2.61683       -2.52438       -0.40212
C          5.74474       -2.42861       -2.05718
C          6.47452       -3.43028       -1.44230
C          5.92706       -4.20264       -0.40448
C          4.63230       -4.00079        0.04324
H          6.16004       -1.82477       -2.85467
H          7.49113       -3.62552       -1.76344
H          6.53226       -4.97500        0.05602
H          4.20805       -4.59190        0.84618
C          1.75876       -2.85309        0.68319
C          1.44802       -1.88236        1.63014
C          0.59277       -2.19855        2.67562
C          0.05736       -3.47768        2.78321
C          0.38338       -4.44530        1.84055
C          1.23284       -4.13514        0.78587
H          1.86783       -0.88745        1.53635
H          0.34836       -1.44323        3.41448
H         -0.61223       -3.71986        3.60012
H         -0.03410       -5.44215        1.91777
H          1.47838       -4.87291        0.03081
C         -4.53922       -1.87748       -0.63291
C         -4.10910       -2.73270       -1.65933
N         -2.83292       -2.39031       -2.06780
C         -2.50080       -1.37083       -1.32939
N         -3.48854       -0.99744       -0.43287
C         -4.94890       -3.75191       -2.10989
C         -6.18665       -3.88712       -1.50681
C         -6.59295       -3.03082       -0.47000
C         -5.77684       -2.01035       -0.01159
H         -4.62514       -4.41046       -2.90650
H         -6.85961       -4.67012       -1.83665
H         -7.56838       -3.17198       -0.01891
H         -6.08531       -1.35049        0.79060
C         -3.35818       -0.09196        0.65579
C         -2.37410       -0.30860        1.61504
C         -2.23650        0.58763        2.66507
C         -3.08025        1.68881        2.76440
C         -4.06884        1.89095        1.80886
C         -4.20905        1.00254        0.75007
H         -1.71926       -1.16793        1.52722
H         -1.46981        0.42139        3.41392
H         -2.96756        2.38775        3.58484
H         -4.72611        2.74940        1.87952
H         -4.96125        1.15880       -0.01444
